Version 4
SHEET 1 896 680
WIRE 704 -192 656 -192
WIRE 864 -192 768 -192
WIRE 656 -96 656 -192
WIRE 704 -96 656 -96
WIRE 864 -96 864 -192
WIRE 864 -96 784 -96
WIRE 656 32 656 -96
WIRE 704 32 656 32
WIRE 864 48 864 -96
WIRE 864 48 768 48
WIRE 704 64 688 64
WIRE 48 96 -16 96
WIRE 688 112 688 64
WIRE 48 192 -32 192
WIRE 256 192 240 192
WIRE -32 288 -32 192
WIRE 256 320 256 192
FLAG -32 288 0
FLAG 240 96 DiodeOut
FLAG 256 320 0
FLAG 736 80 0
FLAG 736 16 5V
FLAG 864 48 Vo
FLAG 208 -192 5V
FLAG 688 112 Voff
FLAG 320 -192 Voff
FLAG 320 -112 0
FLAG 208 -112 0
FLAG -16 16 VLED
FLAG -384 64 VLED
FLAG -384 144 0
FLAG 576 32 DiodeOut
SYMBOL Optos\\4N26 144 160 R0
SYMATTR InstName U1
SYMBOL res -32 0 R0
SYMATTR InstName R1
SYMATTR Value 220
SYMBOL OpAmps\\UniversalOpamp 736 48 R0
SYMATTR InstName U2
SYMBOL res 800 -112 R90
WINDOW 0 0 56 VBottom 2
WINDOW 3 32 56 VTop 2
SYMATTR InstName R2
SYMATTR Value 100k
SYMBOL cap 768 -208 R90
WINDOW 0 0 32 VBottom 2
WINDOW 3 32 32 VTop 2
SYMATTR InstName C1
SYMATTR Value 20p
SYMBOL voltage 208 -208 R0
WINDOW 123 0 0 Left 0
WINDOW 39 0 0 Left 0
SYMATTR InstName V1
SYMATTR Value 5
SYMBOL voltage 320 -208 R0
WINDOW 123 0 0 Left 0
WINDOW 39 0 0 Left 0
SYMATTR InstName V2
SYMATTR Value 0.05
SYMBOL voltage -384 48 R0
WINDOW 123 0 0 Left 0
WINDOW 39 0 0 Left 0
SYMATTR InstName V3
SYMATTR Value PULSE(1 7 0 1 0 0 1 1)
SYMBOL res 672 16 R90
WINDOW 0 0 56 VBottom 2
WINDOW 3 32 56 VTop 2
SYMATTR InstName R3
SYMATTR Value 100
TEXT 632 216 Left 2 !;op
TEXT 632 248 Left 2 !.tran 0 1s 0s
